%nprocshared=32 
%mem=122GB 
%chk=q.chk
#pbe1pbe/tzvp scf=(xqc, maxconventionalcycles=2000) SCRF=(SMD,Solvent=water) opt

Dscr 1 Fe(III) S 4

1 4
C                  0.75559000    4.16089000   -0.00298200
C                 -0.61773400    4.18308800   -0.01350000
C                  1.13347300    2.81336900    0.01965500
C                 -1.03332100    2.84845500    0.00819100
N                  0.03916200    1.99971900    0.03567000
C                 -2.33098300    2.49161300   -0.01822100
C                  2.41898800    2.40796300    0.00186200
C                  2.89244500    0.99463500   -0.00993200
N                  2.13243100   -0.03601800   -0.02946200
C                  4.29521300    0.58480400    0.00077200
C                 -2.84325600    1.10078900   -0.01635300
N                 -2.11561000    0.04562200   -0.01457600
C                 -4.26434700    0.75121100   -0.01278300
C                  4.31248900   -0.79706000   -0.00419000
C                  2.91945300   -1.20376500   -0.02438700
C                  2.45609200   -2.46805700   -0.02294800
C                 -4.33746900   -0.62341200   -0.00446700
C                 -2.96195900   -1.08148800   -0.00719900
C                  1.01777000   -2.83830700   -0.00502900
N                 -0.04156200   -1.97770700    0.01861100
C                  0.57894700   -4.16336700   -0.01139900
C                 -0.79081600   -4.12437600    0.00393900
C                 -1.14863700   -2.78272600    0.01087600
C                 -2.56652200   -2.35975800    0.00230400
Fe                 0.02766300    0.01124600    0.02725900
H                  1.39221300    5.04797900   -0.03261100
H                 -1.22712200    5.09107600   -0.05241600
H                  3.18915300    3.17769700   -0.01932800
H                 -3.08192200    3.28455000   -0.05043500
H                  5.15352900    1.23517400    0.01713600
H                  5.18236800   -1.43302000    0.01387100
H                  3.18031000   -3.28520000   -0.02515400
H                  1.16893300   -5.07929200   -0.02674800
H                 -1.44677000   -4.99525300    0.00541500
H                 -3.33488000   -3.14210400    0.00371000
H                 -5.10221100    1.43083000   -0.01206600
H                 -5.23393100   -1.22439400    0.00565900



